Name: Red-orange sandy loam/alluvium
Type: Soils
Class: Entisol
Particle Size: see additional information
Sample No.: fgg007
Owner: University of NSW
Origin: Fowlers Gap, western New South Wales, Australia
Description: Parent material consists of aeolian silts/clays and sandstone debris.
Measurement: Directional hemispherical reflectance
X Units: Wavelength (micrometers)
Y Units: Reflectance (percent)
wavelength	value
14.013	1.4771
13.79	1.4601
13.573	1.7583
13.363	1.7877
13.16	1.7497
12.962	2.1894
12.771	2.1509
12.585	2.2748
12.404	1.6871
12.228	1.5474
12.058	1.885
11.892	2.209
11.73	2.5267
11.573	2.4488
11.42	2.6125
11.271	2.5863
11.126	2.8256
10.985	3.1595
10.847	2.6553
10.713	2.6173
10.581	2.6809
10.453	2.9753
10.328	3.4668
10.206	3.968
10.087	4.8094
9.971	5.6902
9.857	6.1133
9.746	7.1617
9.637	8.4005
9.531	9.0804
9.427	10.0222
9.325	10.4203
9.226	9.302
9.128	8.1534
9.033	7.2789
8.939	7.452
8.848	8.3724
8.758	8.0436
8.67	7.1733
8.584	7.1971
8.5	8.0505
8.417	8.5771
8.336	9.4136
8.256	10.669
8.178	10.906
8.101	8.3904
8.026	5.7935
7.952	4.2026
7.88	2.887
7.809	2.4857
7.739	2.2787
7.67	1.9604
7.602	1.8573
7.536	1.8359
7.471	1.81
7.407	1.8641
7.344	1.9081
7.282	1.9791
7.221	2.0808
7.161	2.3401
7.103	2.3261
7.045	2.3573
6.988	2.6147
6.932	2.7506
6.876	2.897
6.822	2.9016
6.769	2.869
6.716	2.7706
6.664	2.9979
6.613	3.0778
6.563	2.8781
6.514	3.2844
6.465	3.7683
6.417	3.8163
6.37	3.4138
6.323	3.0406
6.277	2.4596
6.232	2.1683
6.187	1.689
6.143	1.5297
6.1	1.5047
6.057	1.6506
6.015	1.7465
5.973	2.0581
5.932	2.1782
5.892	2.8112
5.852	3.6247
5.813	4.6731
5.774	5.3612
5.735	6.2133
5.698	6.6336
5.66	5.908
5.623	4.9894
5.587	4.9072
5.551	4.9079
5.516	5.3612
5.481	5.9023
5.446	6.1926
5.412	5.5457
5.378	4.3618
5.345	4.0965
5.312	4.3712
5.28	4.7736
5.248	5.5893
5.216	6.9974
5.185	7.2815
5.154	7.237
5.123	7.2929
5.093	7.2761
5.063	7.0232
5.034	7.003
5.005	7.034
4.976	7.8279
4.947	9.0912
4.919	10.2045
4.891	13.0496
4.864	15.5537
4.837	16.8069
4.81	17.6917
4.783	18.2643
4.757	18.7733
4.731	19.0784
4.705	18.8643
4.68	18.3408
4.654	19.4523
4.629	20.4235
4.605	21.0599
4.58	21.4233
4.556	21.519
4.532	20.9488
4.509	19.9415
4.485	19.1722
4.462	19.1511
4.439	20.0609
4.416	20.8285
4.394	21.7772
4.372	22.8643
4.35	23.7327
4.328	24.395
4.306	24.5261
4.285	24.6522
4.264	25.1001
4.243	25.758
4.222	26.2062
4.202	26.4687
4.181	26.9043
4.161	27.4136
4.141	27.8741
4.122	28.4905
4.102	29.0538
4.083	29.461
4.063	30.1084
4.044	30.2833
4.026	30.5764
4.007	30.7664
3.988	31.0296
3.97	31.3056
3.952	31.6363
3.934	31.6268
3.916	31.7387
3.898	31.4937
3.881	31.3641
3.864	31.0562
3.846	30.8663
3.829	30.5444
3.812	30.4397
3.796	30.0202
3.779	29.4625
3.763	28.9259
3.746	28.3591
3.73	27.9356
3.714	27.3912
3.698	26.8307
3.682	26.3449
3.667	25.7544
3.651	25.2817
3.636	24.6984
3.621	23.986
3.606	23.2455
3.591	22.5906
3.576	21.7712
3.561	20.998
3.546	20.2961
3.532	19.5286
3.518	18.6253
3.503	17.646
3.489	17.2035
3.475	16.5902
3.461	15.8433
3.447	15.2072
3.434	14.197
3.42	13.2163
3.407	12.7214
3.393	12.3997
3.38	11.7949
3.367	11.0738
3.354	10.7017
3.341	10.0533
3.328	9.5403
3.315	8.9346
3.302	8.3772
3.29	8.1059
3.277	7.397
3.265	6.9672
3.253	6.5499
3.24	6.1375
3.228	5.8402
3.216	5.3288
3.204	5.0124
3.193	4.7566
3.181	4.3735
3.169	4.2391
3.158	3.8301
3.146	3.751
3.135	3.5073
3.123	3.3525
3.112	3.2599
3.101	3.1135
3.09	2.9598
3.079	2.894
3.068	2.7541
3.057	2.7106
3.046	2.7245
3.036	2.6126
3.025	2.6766
3.014	2.345
3.004	2.4193
2.994	2.5648
2.983	2.2434
2.973	2.3978
2.963	2.342
2.953	2.2549
2.943	2.1528
2.933	2.0877
2.923	2.2178
2.913	2.0903
2.903	2.0113
2.893	2.2202
2.884	2.2519
2.874	2.0826
2.865	2.2661
2.855	2.2729
2.846	2.354
2.836	2.5605
2.827	2.6767
2.818	2.3861
2.809	2.1633
2.8	1.9542
2.791	1.7446
2.782	2.1854
2.773	1.979
2.764	1.6816
2.755	1.5455
2.746	1.8106
2.737	1.9468
2.729	2.1627
2.72	2.8958
2.712	2.9344
2.703	2.3892
2.695	6.2955
2.686	13.0577
2.678	18.5973
2.67	22.586
2.662	24.9634
2.654	26.9309
2.645	28.4185
2.637	29.5566
2.629	30.5985
2.621	31.3341
2.613	31.9433
2.605	32.1997
2.598	32.7489
2.59	33.1364
2.582	33.5026
2.574	33.7073
2.567	34.0948
2.559	34.4651
2.552	34.4857
2.544	34.8102
2.537	34.9691
2.529	35.1817
2.522	35.3366
2.515	35.6198
2.507	36.0066
2.5	36.3209
2.493	36.3245
2.486	37.0146
2.478	37.6141
2.471	38.0157
2.464	38.4663
2.457	38.9118
2.45	39.0841
2.443	39.6352
2.437	40.2596
2.43	40.9906
2.423	41.671
2.416	42.276
2.409	42.917
2.403	43.1878
2.396	43.1899
2.389	43.3847
2.383	43.5376
2.376	43.8661
2.37	44.6124
2.363	44.8922
2.357	45.3135
2.35	45.8126
2.344	46.2311
2.338	47.0279
2.331	47.5239
2.325	48.0747
2.319	48.7073
2.313	49.1768
2.306	49.5985
2.3	50.1049
2.294	50.3899
2.288	50.5756
2.282	50.9891
2.276	51.2957
2.27	51.3455
2.264	51.2408
2.258	50.7693
2.252	50.5607
2.247	50.3068
2.241	49.7939
2.235	49.84
2.229	49.62
2.223	49.0872
2.218	48.1333
2.212	45.6096
2.206	45.1063
2.201	47.4229
2.195	48.4341
2.189	49.3597
2.184	50.0659
2.179	50.8549
2.173	51.2683
2.168	51.4773
2.162	51.963
2.157	52.6187
2.151	53.3165
2.146	54.3791
2.141	54.9446
2.135	55.1447
2.13	55.2531
2.125	55.1439
2.12	55.3885
2.115	55.2749
2.109	55.3941
2.104	55.2889
2.099	55.3253
2.094	55.3737
2.089	55.0939
2.084	55.2235
2.079	55.0395
2.074	55.1737
2.069	55.1978
2.064	55.2871
2.059	54.6839
2.054	54.6661
2.049	54.424
2.045	54.3888
2.04	54.0046
2.035	53.8732
2.03	53.6147
2.025	53.2551
2.021	52.9212
2.016	52.5252
2.011	52.2231
2.007	51.6803
2.002	51.3901
